ckt7_Mon_rfi_11_der000.csv
fault_bus,fault_type,fault_R_ohm,Va_mag_pu,Va_ang_deg,Vb_mag_pu,Vb_ang_deg,Vc_mag_pu,Vc_ang_deg,Ia_mag_A,Ia_ang_deg,Ib_mag_A,Ib_ang_deg,Ic_mag_A,Ic_ang_deg
318412,SLG,0,0.125362,-117.1573,1.036379,-151.5965,1.034585,88.703,7.0636,-78.4219,16.0711,-163.0146,17.169,42.4745
318412,SLG,10,1.026972,-31.3923,1.031958,-151.0322,1.024082,88.8401,17.402,-59.1767,18.6832,-179.1274,17.3959,60.861
318412,SLG,20,1.026978,-31.3694,1.031961,-151.0322,1.024079,88.8399,17.4018,-59.1697,18.6831,-179.1196,17.3961,60.8684
318412,SLG,30,1.02698,-31.3617,1.031961,-151.0322,1.024078,88.8399,17.4017,-59.1673,18.6831,-179.117,17.3962,60.8708
318412,SLG,40,1.026981,-31.3579,1.031962,-151.0322,1.024078,88.8398,17.4016,-59.1661,18.6831,-179.1157,17.3962,60.872
318412,LL,0,0.118753,-113.5952,0.133186,123.2929,1.03557,88.3289,8.9581,-120.4183,4.1269,-129.9021,13.1824,57.0768
318412,LL,10,1.026975,-31.392,1.031944,-151.0781,1.024078,88.8402,17.4016,-59.1913,18.6837,-179.1439,17.3961,60.8442
318412,LL,20,1.02698,-31.3692,1.031954,-151.0551,1.024077,88.84,17.4016,-59.177,18.6834,-179.1278,17.3962,60.86
318412,LL,30,1.026981,-31.3616,1.031957,-151.0475,1.024077,88.8399,17.4016,-59.1722,18.6833,-179.1225,17.3962,60.8652
318412,LL,40,1.026982,-31.3578,1.031958,-151.0437,1.024077,88.8399,17.4015,-59.1698,18.6832,-179.1198,17.3962,60.8678
318412,3LG,0,0.128418,-113.5333,0.12906,126.7864,0.128054,6.6699,2.1752,-141.2508,2.3521,98.7526,2.1772,-21.4331
318412,3LG,10,1.02697,-31.392,1.031949,-151.0778,1.024063,88.7941,17.4018,-59.2082,18.6833,-179.1574,17.3966,60.8301
318412,3LG,20,1.026977,-31.3692,1.031956,-151.055,1.02407,88.8169,17.4016,-59.1854,18.6832,-179.1346,17.3964,60.8529
318412,3LG,30,1.02698,-31.3616,1.031958,-151.0474,1.024072,88.8246,17.4016,-59.1778,18.6831,-179.127,17.3964,60.8605
318412,3LG,40,1.026981,-31.3578,1.03196,-151.0436,1.024073,88.8284,17.4016,-59.174,18.6831,-179.1232,17.3964,60.8643
243937,SLG,0,0.008211,93.4892,1.32389,173.157,1.726258,102.6775,16.4517,-71.8055,17.7478,175.6474,18.8926,53.4521
243937,SLG,10,1.020356,-31.5012,1.034271,-151.2898,1.027037,89.0823,17.4114,-59.2171,18.6877,-179.1884,17.4028,60.8243
243937,SLG,20,1.023661,-31.424,1.033121,-151.1615,1.025556,88.9617,17.4065,-59.1899,18.6854,-179.1502,17.3996,60.8499
243937,SLG,30,1.024767,-31.3982,1.032736,-151.1185,1.025063,88.9212,17.4048,-59.1808,18.6846,-179.1374,17.3985,60.8585
243937,SLG,40,1.02532,-31.3853,1.032543,-151.0969,1.024817,88.9009,17.404,-59.1763,18.6842,-179.131,17.3979,60.8628
243937,LL,0,0.023773,-43.8839,0.034476,98.404,1.472123,83.5866,11.6044,-122.9408,10.5197,-125.6847,22.1616,55.7854
243937,LL,10,1.023295,-31.2601,1.027691,-151.442,1.029297,88.8257,17.4179,-59.2679,18.7054,-179.2483,17.41,60.762
243937,LL,20,1.025128,-31.3028,1.029819,-151.2377,1.026702,88.8329,17.4097,-59.2154,18.6943,-179.1802,17.4031,60.8187
243937,LL,30,1.025744,-31.3173,1.030532,-151.1693,1.02583,88.8352,17.407,-59.1978,18.6905,-179.1574,17.4009,60.8377
243937,LL,40,1.026053,-31.3245,1.030889,-151.1351,1.025393,88.8363,17.4056,-59.189,18.6887,-179.146,17.3997,60.8472
243937,3LG,0,0.031958,-96.4616,0.032102,143.8589,0.031859,23.7256,0.5412,-124.1851,0.5852,115.818,0.5417,-4.3639
243937,3LG,10,1.025604,-31.516,1.030583,-151.2009,1.02269,88.6703,17.4254,-59.3309,18.7085,-179.2798,17.4202,60.7075
243937,3LG,20,1.026295,-31.4312,1.031274,-151.1166,1.023384,88.755,17.4134,-59.2468,18.6958,-179.1958,17.4082,60.7915
243937,3LG,30,1.026525,-31.403,1.031504,-151.0885,1.023615,88.7832,17.4095,-59.2187,18.6915,-179.1678,17.4043,60.8196
243937,3LG,40,1.02664,-31.3888,1.031618,-151.0744,1.023731,88.7974,17.4075,-59.2047,18.6894,-179.1538,17.4023,60.8336
157347,SLG,0,0.402286,-23.9902,1.085667,-169.7401,1.338999,95.7096,18.1487,-64.7044,19.3867,179.0813,19.4836,57.7826
157347,SLG,10,1.018472,-31.8327,1.036944,-151.26,1.025252,89.1968,17.4194,-59.2757,18.6903,-179.2504,17.4072,60.7672
157347,SLG,20,1.022727,-31.5917,1.034481,-151.146,1.024639,89.0196,17.4104,-59.2196,18.6866,-179.1815,17.4017,60.8209
157347,SLG,30,1.024146,-31.5104,1.033648,-151.108,1.024446,88.96,17.4074,-59.2007,18.6854,-179.1583,17.3999,60.839
157347,SLG,40,1.024855,-31.4696,1.033229,-151.089,1.024352,88.93,17.4059,-59.1912,18.6848,-179.1467,17.399,60.8482
157347,LL,0,0.502966,-33.1509,0.338897,-162.7807,1.246618,83.5905,13.9398,-90.9888,12.208,-159.4574,21.4729,58.4574
157347,LL,10,1.019647,-31.4752,1.028439,-151.7425,1.030194,88.9677,17.4299,-59.3847,18.718,-179.3885,17.4197,60.6358
157347,LL,20,1.023275,-31.4122,1.030233,-151.3896,1.027153,88.9061,17.4156,-59.2743,18.7003,-179.2509,17.4079,60.755
157347,LL,30,1.024502,-31.3906,1.030817,-151.271,1.026131,88.8845,17.4109,-59.2372,18.6945,-179.2047,17.404,60.7951
157347,LL,40,1.025119,-31.3796,1.031107,-151.2115,1.025619,88.8736,17.4085,-59.2186,18.6916,-179.1815,17.402,60.8152
157347,3LG,0,0.442198,-43.3744,0.444209,-163.0618,0.440865,76.8113,7.489,-71.1005,8.0971,168.901,7.4951,48.7204
157347,3LG,10,1.024598,-31.7031,1.029581,-151.3881,1.021689,88.4832,17.4428,-59.5174,18.7271,-179.466,17.4376,60.5212
157347,3LG,20,1.025799,-31.5253,1.03078,-151.2107,1.022891,88.6609,17.422,-59.3405,18.7049,-179.2894,17.4168,60.6979
157347,3LG,30,1.026196,-31.4658,1.031176,-151.1513,1.023288,88.7204,17.4151,-59.2813,18.6976,-179.2303,17.4099,60.757
157347,3LG,40,1.026394,-31.436,1.031374,-151.1216,1.023486,88.7502,17.4117,-59.2517,18.6939,-179.2007,17.4065,60.7866
298162,SLG,0,0.012699,131.3554,1.221908,-172.559,1.395299,101.3814,13.61,-68.3101,17.9402,-174.9565,18.6635,52.0956
298162,SLG,10,1.010747,-32.8115,1.044464,-151.258,1.021561,89.563,17.451,-59.4656,18.7048,-179.4583,17.4263,60.5848
298162,SLG,20,1.018889,-32.0843,1.038287,-151.1422,1.022705,89.2028,17.4256,-59.3159,18.6933,-179.286,17.411,60.7283
298162,SLG,30,1.021593,-31.8396,1.036195,-151.1049,1.023137,89.082,17.4175,-59.2652,18.6898,-179.2281,17.406,60.777
298162,SLG,40,1.022943,-31.7167,1.035143,-151.0864,1.023362,89.0216,17.4134,-59.2397,18.688,-179.1991,17.4035,60.8015
298162,LL,0,0.007603,36.7331,0.01441,78.0756,1.343535,85.6097,9.8205,-122.0124,9.5996,-122.4135,19.4389,57.7824
298162,LL,10,1.008126,-32.0829,1.02812,-152.7109,1.034065,89.3275,17.4793,-59.763,18.7712,-179.8422,17.461,60.2289
298162,LL,20,1.017452,-31.7209,1.030174,-151.8764,1.029052,89.0922,17.4397,-59.4646,18.7264,-179.4795,17.4279,60.55
298162,LL,30,1.020607,-31.5975,1.0308,-151.5961,1.027389,89.01,17.4268,-59.3643,18.7118,-179.3575,17.4172,60.658
298162,LL,40,1.022193,-31.5353,1.031102,-151.4555,1.026559,88.9682,17.4204,-59.314,18.7045,-179.2962,17.4119,60.7122
298162,3LG,0,0.005802,-101.9963,0.005822,138.2603,0.005785,18.1459,0.0982,-129.7579,0.1062,110.2364,0.0983,-9.924
298162,3LG,10,1.020512,-32.3103,1.02553,-151.9966,1.017646,87.8763,17.5135,-60.1223,18.8025,179.9298,17.5083,59.9168
298162,3LG,20,1.023776,-31.8297,1.028775,-151.5158,1.02089,88.3567,17.4568,-59.6438,18.742,-179.5923,17.4516,60.3949
298162,3LG,30,1.024852,-31.6689,1.029844,-151.3549,1.021959,88.5174,17.4382,-59.4837,18.7222,-179.4325,17.433,60.5548
298162,3LG,40,1.025387,-31.5884,1.030376,-151.2743,1.022491,88.5979,17.429,-59.4035,18.7124,-179.3524,17.4238,60.6349
165448,SLG,0,0.012587,131.4849,1.226629,-172.1887,1.387778,101.598,13.566,-67.6654,18.016,-174.8479,18.575,52.1231
165448,SLG,10,1.009904,-32.9383,1.04545,-151.2498,1.020951,89.6071,17.455,-59.4885,18.7066,-179.483,17.4288,60.5628
165448,SLG,20,1.018476,-32.1485,1.038788,-151.1374,1.022381,89.2247,17.4275,-59.3277,18.6941,-179.2984,17.4121,60.717
165448,SLG,30,1.02132,-31.8825,1.036531,-151.1015,1.022917,89.0966,17.4187,-59.2731,18.6903,-179.2364,17.4067,60.7694
165448,SLG,40,1.022739,-31.749,1.035396,-151.0838,1.023195,89.0325,17.4143,-59.2456,18.6884,-179.2054,17.4041,60.7958
165448,LL,0,0.007599,38.699,0.01396,77.3934,1.341898,85.794,9.7978,-121.8443,9.5916,-122.2109,19.4075,57.9668
165448,LL,10,1.006659,-32.1646,1.028231,-152.8283,1.034456,89.3781,17.4854,-59.8091,18.7776,-179.8973,17.4662,60.1795
165448,LL,20,1.016708,-31.763,1.030254,-151.9355,1.029236,89.1187,17.4427,-59.4879,18.7295,-179.5074,17.4304,60.5249
165448,LL,30,1.020109,-31.6259,1.030859,-151.6355,1.027509,89.028,17.4288,-59.3799,18.7138,-179.3761,17.4188,60.6412
165448,LL,40,1.021818,-31.5566,1.031149,-151.4851,1.026648,88.9817,17.4219,-59.3257,18.706,-179.3103,17.4131,60.6996
165448,3LG,0,0.005386,-102.0497,0.005405,138.2005,0.005371,18.0884,0.0912,-129.815,0.0986,110.1785,0.0913,-9.9799
165448,3LG,10,1.020013,-32.3844,1.025038,-152.071,1.017156,87.8022,17.5221,-60.1962,18.8117,179.856,17.5169,59.8429
165448,3LG,20,1.023531,-31.867,1.028534,-151.5532,1.020649,88.3194,17.461,-59.681,18.7465,-179.6295,17.4558,60.3577
165448,3LG,30,1.024689,-31.6938,1.029684,-151.3799,1.021799,88.4925,17.441,-59.5085,18.7252,-179.4572,17.4358,60.53
165448,3LG,40,1.025266,-31.6071,1.030257,-151.2931,1.022372,88.5792,17.4311,-59.4222,18.7146,-179.371,17.4259,60.6163
165449,SLG,0,0.01093,130.5624,1.261338,-170.8163,1.360605,103.1277,13.6429,-64.304,18.4825,-174.7265,18.2077,52.618
165449,SLG,10,1.001792,-34.2065,1.055824,-151.1798,1.014828,90.0817,17.4918,-59.7073,18.7214,-179.7232,17.4497,60.3513
165449,SLG,20,1.014562,-32.7931,1.044079,-151.0912,1.019053,89.459,17.4444,-59.4406,18.7001,-179.4197,17.4216,60.6075
165449,SLG,30,1.018744,-32.3146,1.04008,-151.0681,1.020638,89.252,17.4296,-59.3492,18.6939,-179.3175,17.4128,60.6955
165449,SLG,40,1.02082,-32.0739,1.038065,-151.0578,1.021464,89.1487,17.4224,-59.303,18.691,-179.2663,17.4086,60.7401
165449,LL,0,0.006867,46.2786,0.010738,72.8575,1.341285,86.776,9.7715,-120.9629,9.6446,-121.146,19.4298,58.9364
165449,LL,10,0.992236,-32.9416,1.030066,-154.012,1.038965,89.8957,17.5392,-60.2556,18.8333,179.5678,17.5114,59.7007
165449,LL,20,1.009375,-32.1698,1.031529,-152.5315,1.031302,89.3947,17.4678,-59.7145,18.7554,-179.7795,17.4511,60.2809
165449,LL,30,1.015196,-31.9012,1.031792,-152.0336,1.028838,89.2158,17.4451,-59.5317,18.7307,-179.5585,17.4322,60.4775
165449,LL,40,1.018125,-31.7648,1.031879,-151.7839,1.027626,89.124,17.434,-59.4398,18.7185,-179.4474,17.423,60.5765
165449,3LG,0,0.00319,-103.3916,0.003198,136.7857,0.003182,16.7014,0.054,-131.1976,0.0584,108.7859,0.054,-11.3503
165449,3LG,10,1.015719,-33.1026,1.02086,-152.7964,1.013017,87.0852,17.5961,-60.9139,18.8906,179.1389,17.5909,59.1258
165449,3LG,20,1.021446,-32.229,1.026512,-151.9188,1.018645,87.9582,17.4965,-60.0426,18.7844,-179.9908,17.4913,59.9964
165449,3LG,30,1.023314,-31.9358,1.028352,-151.6242,1.020478,88.2512,17.4643,-59.7502,18.7501,-179.6988,17.4591,60.2885
165449,3LG,40,1.024239,-31.7888,1.029263,-151.4766,1.021386,88.398,17.4484,-59.6037,18.7331,-179.5524,17.4432,60.4349
287274,SLG,0,0.072939,-57.0885,1.270822,-167.8153,1.294972,103.678,14.3164,-62.6144,18.8982,-175.281,18.2048,53.6876
287274,SLG,10,0.991825,-34.9204,1.061586,-151.1661,1.011772,90.3614,17.5454,-59.8322,18.7707,-179.8577,17.493,60.244
287274,SLG,20,1.009634,-33.1698,1.047152,-151.073,1.017239,89.5998,17.4702,-59.5092,18.7173,-179.4915,17.4426,60.5486
287274,SLG,30,1.015475,-32.5699,1.042161,-151.0534,1.019366,89.3458,17.4466,-59.3963,18.7051,-179.3662,17.4267,60.655
287274,SLG,40,1.018375,-32.267,1.039638,-151.0458,1.020486,89.2189,17.435,-59.3389,18.6993,-179.3031,17.4189,60.7092
287274,LL,0,0.108716,-52.3373,0.089131,160.0449,1.315338,87.9089,11.1199,-112.9259,8.7327,-130.5739,19.6549,59.6471
287274,LL,10,0.98401,-33.5705,1.031079,-154.9689,1.048341,89.9626,17.5361,-60.7359,18.8256,179.0222,17.4975,59.2119
287274,LL,20,1.002606,-32.4017,1.029543,-152.8888,1.032646,89.549,17.5141,-59.8466,18.8032,-179.9439,17.492,60.142
287274,LL,30,1.010629,-32.0612,1.030551,-152.2742,1.029696,89.3228,17.4756,-59.6215,18.7622,-179.67,17.4592,60.3829
287274,LL,40,1.01468,-31.8868,1.030981,-151.9652,1.028254,89.2059,17.4567,-59.5078,18.742,-179.5317,17.4431,60.5047
287274,3LG,0,0.109878,-67.9091,0.110113,172.23,0.10965,52.1608,1.861,-95.7388,2.01,144.2426,1.8612,24.1194
287274,3LG,10,1.008123,-33.5205,1.013363,-153.2198,1.005553,86.6687,17.7301,-61.329,19.0335,178.725,17.7248,58.7117
287274,3LG,20,1.01766,-32.4458,1.022782,-152.1384,1.014929,87.7425,17.5621,-60.2577,18.8544,179.7947,17.5569,59.7818
287274,3LG,30,1.020793,-32.0821,1.025871,-151.7724,1.018005,88.1056,17.5078,-59.8953,18.7964,-179.8434,17.5026,60.1438
287274,3LG,40,1.022351,-31.8992,1.027405,-151.5884,1.019534,88.2882,17.4809,-59.7131,18.7677,-179.6615,17.4757,60.3257
283954,SLG,0,0.078942,-58.0666,1.275751,-167.7168,1.292901,103.8992,14.4398,-62.5024,18.9514,-175.431,18.2271,53.8607
283954,SLG,10,0.986787,-35.6108,1.067224,-151.156,1.008885,90.639,17.5695,-59.9484,18.7955,-179.9886,17.5074,60.1317
283954,SLG,20,1.007253,-33.5303,1.050144,-151.0548,1.015494,89.737,17.4807,-59.5715,18.7215,-179.5598,17.4486,60.4884
283954,SLG,30,1.013922,-32.8133,1.04418,-151.0385,1.018138,89.4365,17.4532,-59.4389,18.7076,-179.4122,17.4305,60.6139
283954,SLG,40,1.017224,-32.4507,1.041161,-151.0335,1.019541,89.2866,17.4399,-59.3711,18.7011,-179.3377,17.4217,60.6779
283954,LL,0,0.115651,-53.6461,0.095444,160.0545,1.31577,88.0333,11.2591,-112.567,8.6809,-131.1586,19.7189,59.6993
283954,LL,10,0.975777,-33.964,1.031286,-155.6475,1.051527,90.2286,17.5707,-60.9816,18.8613,178.7272,17.5272,58.9507
283954,LL,20,0.99842,-32.6206,1.03004,-153.23,1.03399,89.6988,17.5295,-59.9736,18.8192,179.9034,17.5049,60.0057
283954,LL,30,1.007808,-32.2121,1.030972,-152.5028,1.030542,89.4268,17.4854,-59.7072,18.7724,-179.773,17.4673,60.2906
283954,LL,40,1.012553,-32.0019,1.031331,-152.137,1.028868,89.2854,17.464,-59.5725,18.7496,-179.6096,17.4491,60.4351
283954,3LG,0,0.116811,-68.5504,0.117024,171.5456,0.116613,51.5018,1.9787,-96.4019,2.1367,143.5747,1.9786,23.4643
283954,3LG,10,1.005494,-33.9185,1.010855,-153.6261,1.003087,86.2724,17.7757,-61.7278,19.0821,178.3263,17.7705,58.3131
283954,3LG,20,1.016397,-32.6496,1.021589,-152.3463,1.013752,87.5399,17.5835,-60.4617,18.8771,179.5908,17.5783,59.5779
283954,3LG,30,1.019964,-32.219,1.02509,-151.912,1.017233,87.9697,17.5217,-60.0323,18.8112,-179.9804,17.5164,60.0068
283954,3LG,40,1.021733,-32.0023,1.026825,-151.6935,1.01896,88.1858,17.4912,-59.8162,18.7787,-179.7646,17.486,60.2227
283956,SLG,0,0.250708,-64.5652,1.270004,-164.4205,1.219734,103.636,16.0452,-65.5465,18.9942,-177.5041,19.1213,55.4449
283956,SLG,10,0.987154,-35.5252,1.0666,-151.1608,1.009259,90.6099,17.5674,-59.9335,18.7934,-179.9718,17.5066,60.1466
283956,SLG,20,1.007334,-33.5078,1.049976,-151.0569,1.015607,89.7299,17.4803,-59.5675,18.7215,-179.5554,17.4485,60.4924
283956,SLG,30,1.013957,-32.8031,1.044104,-151.0395,1.018191,89.4333,17.4531,-59.437,18.7076,-179.4102,17.4304,60.6157
283956,SLG,40,1.017243,-32.4449,1.041118,-151.0341,1.019571,89.2848,17.4398,-59.3701,18.7011,-179.3366,17.4216,60.679
283956,LL,0,0.301724,-58.0447,0.289538,166.2249,1.279148,89.4053,13.9368,-103.0616,8.2545,-154.6985,20.1942,59.2493
283956,LL,10,0.976943,-33.9179,1.030727,-155.5657,1.051148,90.1884,17.5687,-60.9541,18.8598,178.7594,17.5253,58.9793
283956,LL,20,0.99872,-32.6071,1.029866,-153.2094,1.033914,89.6873,17.5291,-59.9664,18.819,179.9118,17.5046,60.0133
283956,LL,30,1.007944,-32.2058,1.030889,-152.4935,1.030511,89.4214,17.4852,-59.7039,18.7723,-179.7692,17.4672,60.294
283956,LL,40,1.01263,-31.9983,1.031283,-152.1318,1.028851,89.2823,17.4639,-59.5707,18.7495,-179.6074,17.449,60.437
283956,3LG,0,0.316395,-66.496,0.317227,173.6077,0.315901,53.5759,5.3606,-94.3317,5.7903,145.6394,5.3606,25.5198
283956,3LG,10,1.005613,-33.8819,1.010964,-153.5887,1.003191,86.3089,17.7737,-61.691,19.08,178.3631,17.7685,58.3499
283956,3LG,20,1.016423,-32.6401,1.021612,-152.3366,1.013773,87.5493,17.5831,-60.4522,18.8767,179.6003,17.5779,59.5874
283956,3LG,30,1.019974,-32.2148,1.025099,-151.9077,1.017242,87.9739,17.5215,-60.028,18.811,-179.9761,17.5163,60.0111
283956,3LG,40,1.021739,-31.9999,1.02683,-151.691,1.018964,88.1882,17.4911,-59.8138,18.7786,-179.7622,17.4859,60.2251
189963,SLG,0,0.021742,-25.7962,1.302425,-165.2758,1.239061,105.1604,13.2042,-55.5818,19.4422,-173.0934,17.0509,52.77
189963,SLG,10,0.952849,-37.4157,1.086338,-151.4573,1.009312,91.1167,17.6885,-60.4263,18.9086,179.5146,17.6027,59.7168
189963,SLG,20,0.987931,-34.3754,1.056952,-151.0387,1.01184,90.0629,17.5896,-59.7267,18.8063,-179.718,17.5451,60.3755
189963,SLG,30,1.00095,-33.3924,1.048853,-151.0199,1.015489,89.6547,17.5257,-59.5495,18.7625,-179.5225,17.4949,60.5336
189963,SLG,40,1.007463,-32.8909,1.044714,-151.0165,1.017472,89.4505,17.4942,-59.4568,18.7419,-179.4222,17.47,60.6158
189963,LL,0,0.023874,-13.7857,0.026326,-148.4158,1.30845,89.4255,9.4715,-115.9895,9.6752,-121.2193,19.108,61.4551
189963,LL,10,0.932086,-34.8139,1.00286,-157.203,1.059251,90.7513,18.0039,-61.4866,19.2952,178.0124,17.9011,58.463
189963,LL,20,0.980107,-33.3347,1.022257,-154.3143,1.043787,89.8157,17.6419,-60.4908,18.9291,179.2861,17.5934,59.4883
189963,LL,30,0.992149,-32.5682,1.022364,-153.0611,1.032701,89.6572,17.6242,-59.9073,18.9147,179.9629,17.5909,60.0877
189963,LL,40,1.000684,-32.2758,1.024952,-152.5598,1.030443,89.4637,17.5674,-59.7257,18.856,-179.8101,17.5416,60.279
189963,3LG,0,0.026741,-19.9286,0.026757,-139.9202,0.026757,100.0903,0.4532,-47.8582,0.489,-167.8343,0.4533,72.0694
189963,3LG,10,0.977685,-35.0839,0.983395,-154.8125,0.975759,85.1212,18.2888,-62.8846,19.6294,177.1744,18.2836,57.1597
189963,3LG,20,0.999655,-33.1493,1.005017,-152.8554,0.997256,87.0471,17.8818,-60.9533,19.1954,179.1018,17.8765,59.0881
189963,3LG,30,1.008724,-32.5594,1.013973,-152.2586,1.006161,87.6342,17.7192,-60.3666,19.0219,179.6871,17.7139,59.6738
189963,3LG,40,1.013275,-32.2604,1.018462,-151.9561,1.010628,87.9317,17.6388,-60.0694,18.9362,179.9835,17.6336,59.9704
181977,SLG,0,0.000652,-86.1121,1.313343,-164.8485,1.229446,105.6773,4705.2875,-86.0302,19.4587,-172.5359,16.8464,52.3077
181977,SLG,10,0.936467,-38.4062,1.094211,-151.473,1.00596,91.5243,690.7145,-38.9627,18.998,179.3475,17.6798,59.5885
181977,SLG,20,0.979545,-34.9124,1.06124,-151.0242,1.009532,90.2693,368.6853,-36.0667,18.8501,-179.8157,17.5839,60.2981
181977,SLG,30,0.995308,-33.7605,1.051801,-151.0044,1.013797,89.7925,254.7735,-35.4826,18.7845,-179.5916,17.5207,60.4787
181977,SLG,40,1.003215,-33.1708,1.046957,-151.0025,1.016143,89.5537,196.4204,-35.4384,18.7581,-179.4751,17.4893,60.5734
181977,LL,0,0.000902,-65.9827,0.000962,143.2631,1.310404,89.7678,6501.8669,-66.0487,6921.6323,143.3405,18.9449,61.7697
181977,LL,10,0.912562,-35.3544,0.992568,-158.1688,1.063991,91.0684,673.3358,-36.0439,732.4046,-158.7948,18.0543,58.1412
181977,LL,20,0.969305,-33.6541,1.017581,-154.8315,1.045984,90.0198,364.8119,-34.9192,383.4739,-156.0826,17.6694,59.3001
181977,LL,30,0.984804,-32.7942,1.019425,-153.4101,1.034042,89.8034,252.1892,-34.6333,261.7238,-155.2826,17.6413,59.956
181977,LL,40,0.995092,-32.4502,1.022804,-152.8239,1.031413,89.5774,194.9125,-34.831,201.1014,-155.2785,17.5793,60.1778
181977,3LG,0,0.001041,-80.8909,0.001042,159.113,0.001041,39.1203,7494.8223,-80.8909,7500.3307,159.113,7497.9119,39.1202
181977,3LG,10,0.96452,-35.6718,0.970259,-155.4125,0.962828,84.5327,710.8677,-36.369,716.1764,-156.16,709.6215,83.8309
181977,3LG,20,0.992877,-33.4619,0.99828,-153.174,0.99061,86.7353,373.4353,-34.7506,376.5279,-154.5564,372.593,85.4375
181977,3LG,30,1.00415,-32.7724,1.009433,-152.4755,1.00168,87.4221,256.861,-34.625,259.2695,-154.4616,256.2428,85.5562
181977,3LG,40,1.009824,-32.4219,1.015039,-152.1205,1.007248,87.771,197.5856,-34.8169,199.6643,-154.6859,197.0972,85.3585
181924,SLG,0,0.148461,-18.0754,1.260153,-164.6163,1.224982,103.1916,14.7127,-55.1925,19.9221,-174.7705,17.3586,54.9661
181924,SLG,10,0.946985,-37.7582,1.089987,-151.5295,1.008823,91.3415,17.7118,-60.4715,18.9328,179.4572,17.6212,59.6753
181924,SLG,20,0.985478,-34.5931,1.059008,-151.0508,1.011029,90.1732,17.5998,-59.7608,18.8169,-179.757,17.5524,60.3435
181924,SLG,30,0.999422,-33.5492,1.050313,-151.0213,1.014805,89.728,17.5319,-59.5748,18.7656,-179.5509,17.4991,60.5098
181924,SLG,40,1.006362,-33.0126,1.04583,-151.0152,1.016909,89.505,17.4986,-59.4768,18.744,-179.4443,17.473,60.5969
181924,LL,0,0.135916,-17.8963,0.148816,-133.2401,1.275809,88.8699,9.4199,-105.3363,11.0382,-130.4566,19.8258,61.4706
181924,LL,10,0.926843,-34.8926,0.999443,-157.6326,1.062505,90.8471,18.0441,-61.6021,19.3379,177.8579,17.9351,58.342
181924,LL,20,0.976933,-33.4287,1.021489,-154.558,1.045287,89.904,17.6585,-60.565,18.9467,179.1917,17.6076,59.409
181924,LL,30,0.990027,-32.646,1.022137,-153.2236,1.033555,89.7237,17.634,-59.96,18.9252,179.8969,17.5993,60.031
181924,LL,40,0.999062,-32.3397,1.024878,-152.683,1.031046,89.5169,17.5745,-59.7667,18.8635,-179.8611,17.5476,60.2349
181924,3LG,0,0.138904,-13.9445,0.139058,-133.9215,0.138998,106.0966,2.3543,-41.8609,2.5406,-161.8354,2.3554,78.0625
181924,3LG,10,0.974894,-35.3042,0.980654,-155.0414,0.973103,84.9001,18.3414,-63.1073,19.6855,176.9519,18.3362,56.9373
181924,3LG,20,0.998435,-33.2755,1.003849,-152.9858,0.996117,86.9218,17.9033,-61.08,19.2183,178.9751,17.898,58.9615
181924,3LG,30,1.007944,-32.6475,1.013234,-152.3494,1.005438,87.5471,17.7326,-60.4548,19.0362,179.5988,17.7273,59.5856
181924,3LG,40,1.012703,-32.3279,1.017924,-152.0257,1.0101,87.8649,17.6485,-60.137,18.9465,179.9159,17.6432,59.9028
181993,SLG,0,0.216451,-18.7476,1.237181,-164.0211,1.213242,102.0868,15.4812,-55.0694,20.1636,-175.5825,17.5287,56.0581
181993,SLG,10,0.945857,-37.6739,1.089765,-151.5653,1.009526,91.3488,17.7142,-60.4554,18.9353,179.4748,17.6252,59.6935
181993,SLG,20,0.985072,-34.5736,1.059002,-151.0623,1.011215,90.1793,17.6009,-59.7567,18.818,-179.7528,17.5539,60.3484
181993,SLG,30,0.999201,-33.5413,1.050338,-151.0269,1.014885,89.7321,17.5326,-59.5729,18.7662,-179.549,17.4999,60.5121
181993,SLG,40,1.006217,-33.0085,1.045855,-151.0186,1.016953,89.5081,17.4991,-59.4758,18.7444,-179.4433,17.4735,60.5982
181993,LL,0,0.198265,-18.4278,0.217429,-133.8994,1.256862,88.6572,9.5834,-99.3061,11.8354,-134.9975,20.1887,61.4551
181993,LL,10,0.927144,-34.7936,0.99764,-157.6002,1.062934,90.8039,18.0505,-61.5727,19.3458,177.8858,17.9406,58.3726
181993,LL,20,0.976898,-33.399,1.02094,-154.5549,1.045497,89.8942,17.6607,-60.5571,18.9495,179.199,17.6096,59.4171
181993,LL,30,0.989967,-32.6319,1.021875,-153.2237,1.033673,89.7202,17.6353,-59.9564,18.9266,179.9001,17.6004,60.0348
181993,LL,40,0.999008,-32.3313,1.024719,-152.6838,1.031125,89.5153,17.5753,-59.7646,18.8644,-179.8593,17.5483,60.237
181993,3LG,0,0.20294,-14.5352,0.203227,-134.482,0.203022,105.5205,3.4394,-42.4347,3.7122,-162.4071,3.4413,77.4816
181993,3LG,10,0.974457,-35.2725,0.980179,-155.0077,0.972628,84.9309,18.3503,-63.0752,19.695,176.9843,18.3451,56.9695
181993,3LG,20,0.998282,-33.2673,1.003683,-152.9769,0.99595,86.9297,17.9063,-61.0716,19.2215,178.9835,17.901,58.9699
181993,3LG,30,1.007859,-32.6438,1.013143,-152.3453,1.005346,87.5507,17.7342,-60.4509,19.0379,179.6027,17.7289,59.5895
181993,3LG,40,1.012647,-32.3258,1.017863,-152.0232,1.010038,87.8671,17.6496,-60.1348,18.9476,179.9182,17.6443,59.9051
181994,SLG,0,0.28281,-20.9171,1.216444,-163.2546,1.198609,101.0458,16.2368,-55.2903,20.3627,-176.4008,17.748,57.0805
181994,SLG,10,0.945088,-37.5656,1.089295,-151.5976,1.010282,91.3409,17.7152,-60.4365,18.9361,179.496,17.628,59.7144
181994,SLG,20,0.98481,-34.5458,1.058893,-151.0724,1.011427,90.179,17.6016,-59.7516,18.8186,-179.7474,17.5549,60.3541
181994,SLG,30,0.999073,-33.5288,1.050294,-151.0316,1.014981,89.7323,17.5329,-59.5705,18.7666,-179.5465,17.5004,60.5147
181994,SLG,40,1.006141,-33.0013,1.045831,-151.0214,1.017008,89.5083,17.4993,-59.4744,18.7446,-179.4418,17.4738,60.5998
181994,LL,0,0.266877,-20.4555,0.284727,-137.576,1.23835,88.5417,10.1212,-93.4591,12.5084,-140.0496,20.5458,61.3919
181994,LL,10,0.927845,-34.69,0.995975,-157.5394,1.06315,90.7515,18.0544,-61.5366,19.3513,177.9228,17.9439,58.4099
181994,LL,20,0.977039,-33.368,1.020434,-154.5416,1.045618,89.8798,17.6621,-60.5473,18.9513,179.2091,17.6109,59.4272
181994,LL,30,0.990019,-32.6173,1.021638,-153.2181,1.033738,89.7138,17.636,-59.9519,18.9276,179.9047,17.6011,60.0395
181994,LL,40,0.999035,-32.3228,1.024581,-152.6805,1.031164,89.5117,17.5757,-59.7619,18.865,-179.8565,17.5487,60.2398
181994,3LG,0,0.271642,-17.9409,0.272131,-137.859,0.271687,102.1319,4.6036,-45.8224,4.9697,-165.794,4.6065,74.0857
181994,3LG,10,0.974178,-35.2294,0.979867,-154.9618,0.972302,84.974,18.3562,-63.031,19.7014,177.0286,18.351,57.0137
181994,3LG,20,0.998195,-33.2561,1.003583,-152.9646,0.995845,86.9411,17.9081,-61.0599,19.2234,178.9953,17.9028,58.9817
181994,3LG,30,1.007817,-32.6386,1.013094,-152.3394,1.005293,87.556,17.7351,-60.4454,19.0388,179.6082,17.7298,59.595
181994,3LG,40,1.012622,-32.3227,1.017834,-152.0197,1.010005,87.8702,17.6501,-60.1315,18.9482,179.9215,17.6448,59.9084
181891,SLG,0,0.362907,-27.6388,1.199144,-161.7893,1.170026,100.0433,17.1439,-56.6889,20.4566,-177.5116,18.19,58.1294
181891,SLG,10,0.945331,-37.367,1.088063,-151.6274,1.011327,91.2917,17.7111,-60.4049,18.9319,179.5325,17.6273,59.7475
181891,SLG,20,0.984809,-34.4885,1.058526,-151.0838,1.011773,90.1658,17.601,-59.7422,18.8179,-179.7371,17.5551,60.3638
181891,SLG,30,0.999072,-33.5011,1.05012,-151.037,1.015151,89.7257,17.5326,-59.5659,18.7667,-179.5415,17.5005,60.5195
181891,SLG,40,1.006145,-32.9847,1.045731,-151.0243,1.017108,89.504,17.4991,-59.4716,18.7446,-179.4388,17.4738,60.6027
181891,LL,0,0.365739,-28.6213,0.357276,-147.8418,1.214986,88.7183,11.8125,-89.0262,12.6431,-148.381,20.9882,61.2448
181891,LL,10,0.929949,-34.545,0.994598,-157.3951,1.062913,90.6669,18.049,-61.4742,19.3478,177.9938,17.9394,58.474
181891,LL,20,0.977617,-33.3216,1.01994,-154.503,1.045629,89.8527,17.6611,-60.5292,18.9509,179.2296,17.6102,59.4461
181891,LL,30,0.990286,-32.5946,1.021395,-153.1998,1.033753,89.7003,17.6356,-59.9432,18.9275,179.9146,17.6008,60.0486
181891,LL,40,0.999197,-32.3093,1.024436,-152.6693,1.031173,89.5033,17.5755,-59.7568,18.8649,-179.8506,17.5486,60.2452
181891,3LG,0,0.359927,-28.7115,0.360773,-148.5983,0.359808,91.3839,6.0996,-56.5667,6.5862,-176.5471,6.1032,63.3262
181891,3LG,10,0.974609,-35.1418,0.980186,-154.8729,0.972668,85.0551,18.3491,-62.9453,19.6937,177.1144,18.3438,57.0995
181891,3LG,20,0.998304,-33.231,1.003642,-152.9396,0.995937,86.9629,17.9065,-61.036,19.2218,179.0193,17.9012,59.0056
181891,3LG,30,1.007872,-32.6264,1.013118,-152.3274,1.00534,87.5661,17.7343,-60.434,19.038,179.6197,17.729,59.6064
181891,3LG,40,1.012658,-32.3153,1.017846,-152.0125,1.010036,87.8761,17.6496,-60.1247,18.9477,179.9283,17.6444,59.9152
255335,SLG,0,0.38444,-26.5322,1.19122,-161.6525,1.16838,99.6383,17.4041,-56.4667,20.5624,-177.7551,18.2263,58.4998
255335,SLG,10,0.944638,-37.3381,1.088101,-151.6451,1.01162,91.3036,17.7129,-60.3979,18.9337,179.54,17.6296,59.7556
255335,SLG,20,0.989091,-34.7298,1.065043,-151.3407,1.017628,89.9921,17.5036,-59.9692,18.7292,-179.9638,17.4587,60.1359
255335,SLG,30,0.998939,-33.5011,1.050164,-151.0395,1.015169,89.7299,17.5331,-59.5654,18.767,-179.5411,17.501,60.5202
255335,SLG,40,1.006058,-32.9855,1.045759,-151.026,1.017116,89.507,17.4994,-59.4714,18.7449,-179.4387,17.4741,60.603
255335,LL,0,0.38503,-26.2892,0.386433,-146.3679,1.210005,88.6303,11.8073,-86.7052,13.215,-149.1701,21.1123,61.2236
255335,LL,10,0.929822,-34.506,0.993707,-157.3794,1.063131,90.6523,18.0543,-61.4602,19.3534,178.0061,17.9437,58.4891
255335,LL,20,0.977511,-33.3104,1.019668,-154.5035,1.045728,89.8507,17.6629,-60.526,18.9529,179.2321,17.6117,59.4494
255335,LL,30,0.990211,-32.5898,1.021269,-153.2016,1.033809,89.7005,17.6365,-59.942,18.9285,179.9154,17.6016,60.0498
255335,LL,40,0.99914,-32.3067,1.024362,-152.6712,1.031209,89.5039,17.5761,-59.7562,18.8655,-179.8503,17.5491,60.2458
255335,3LG,0,0.385678,-26.3596,0.386661,-146.2413,0.385625,93.7414,6.5364,-54.2129,7.0584,-174.1878,6.5411,65.6794
255335,3LG,10,0.974155,-35.1275,0.979792,-154.855,0.972198,85.0761,18.3576,-62.9274,19.7028,177.1324,18.3523,57.1173
255335,3LG,20,0.998152,-33.229,1.003521,-152.9356,0.995772,86.9683,17.9092,-61.0321,19.2246,179.0232,17.9039,59.0095
255335,3LG,30,1.007792,-32.6261,1.013058,-152.3257,1.005248,87.5687,17.7357,-60.4325,19.0395,179.6212,17.7304,59.6079
255335,3LG,40,1.012606,-32.3156,1.01781,-152.0117,1.009975,87.8776,17.6505,-60.124,18.9486,179.9291,17.6452,59.9159
182030,SLG,0,0.407062,-28.2668,1.187421,-161.2012,1.159726,99.3825,17.6597,-56.917,20.5791,-178.0772,18.3642,58.7688
182030,SLG,10,0.944833,-37.2756,1.087722,-151.6525,1.011922,91.2879,17.711,-60.3875,18.9318,179.552,17.6288,59.7663
182030,SLG,20,0.989109,-34.7125,1.064942,-151.3438,1.017729,89.9886,17.5033,-59.9661,18.7289,-179.9604,17.4587,60.139
182030,SLG,30,0.99894,-33.4933,1.05012,-151.0411,1.015217,89.7285,17.533,-59.564,18.767,-179.5396,17.501,60.5217
182030,SLG,40,1.006057,-32.981,1.045734,-151.027,1.017144,89.5063,17.4993,-59.4706,18.7449,-179.4378,17.4741,60.6039
182030,LL,0,0.414633,-27.6608,0.411981,-149.0158,1.204115,88.7301,12.341,-85.4984,13.3504,-151.6778,21.236,61.1635
182030,LL,10,0.930461,-34.4655,0.993442,-157.3253,1.062998,90.6288,18.0521,-61.4386,19.3514,178.031,17.9418,58.5116
182030,LL,20,0.97768,-33.2973,1.019548,-154.4898,1.045718,89.8432,17.6625,-60.5199,18.9526,179.239,17.6115,59.4558
182030,LL,30,0.990283,-32.5834,1.021207,-153.1957,1.033811,89.697,17.6364,-59.9392,18.9284,179.9185,17.6016,60.0527
182030,LL,40,0.99918,-32.3029,1.024325,-152.6679,1.031212,89.5019,17.576,-59.7546,18.8655,-179.8485,17.5491,60.2475
182030,3LG,0,0.415867,-28.5399,0.417003,-148.416,0.415791,91.5664,7.0482,-56.3876,7.6116,-176.3641,7.0533,63.5006
182030,3LG,10,0.974282,-35.0948,0.979909,-154.8218,0.972313,85.1085,18.3553,-62.8946,19.7003,177.1651,18.35,57.1501
182030,3LG,20,0.998174,-33.2202,1.00354,-152.9267,0.99579,86.9769,17.9088,-61.0234,19.2242,179.0319,17.9035,59.0182
182030,3LG,30,1.0078,-32.6222,1.013064,-152.3217,1.005255,87.5726,17.7356,-60.4285,19.0394,179.6252,17.7303,59.6119
182030,3LG,40,1.01261,-32.3133,1.017813,-152.0094,1.009978,87.8798,17.6504,-60.1217,18.9486,179.9313,17.6452,59.9182
182153,SLG,0,0.533715,-33.7067,1.164685,-158.8803,1.117543,97.7958,18.8526,-59.2513,20.5018,-179.4287,19.0811,60.2263
182153,SLG,10,0.946411,-36.8678,1.085146,-151.6963,1.013818,91.1789,17.6982,-60.3203,18.9189,179.6295,17.6227,59.8351
182153,SLG,20,0.984756,-34.351,1.057788,-151.1123,1.012577,90.1443,17.5992,-59.7167,18.816,-179.7096,17.5553,60.3901
182153,SLG,30,0.998981,-33.4382,1.049786,-151.052,1.015538,89.7177,17.5322,-59.554,18.767,-179.5289,17.5009,60.5318
182153,SLG,40,1.00607,-32.9491,1.045544,-151.0335,1.017332,89.5003,17.499,-59.4648,18.7449,-179.4316,17.4742,60.6098
182153,LL,0,0.568142,-33.3634,0.5394,-156.8282,1.169613,89.064,14.8927,-79.3033,14.6401,-163.9303,21.5078,60.6157
182153,LL,10,0.935498,-34.1791,0.991688,-156.9982,1.062159,90.4634,18.0313,-61.3037,19.3342,178.189,17.9245,58.6493
182153,LL,20,0.979029,-33.1992,1.018707,-154.4049,1.045673,89.7892,17.6589,-60.4797,18.95,179.285,17.6086,59.4972
182153,LL,30,0.990868,-32.535,1.020765,-153.1584,1.033831,89.6714,17.6351,-59.9202,18.9277,179.9401,17.6006,60.0724
182153,LL,40,0.999509,-32.2741,1.024054,-152.6467,1.031233,89.4869,17.5754,-59.7435,18.8652,-179.836,17.5486,60.259
182153,3LG,0,0.562844,-36.0409,0.564994,-155.8673,0.562445,84.1032,10.2711,-63.8021,11.1254,176.2129,10.2843,55.997
182153,3LG,10,0.975726,-34.8993,0.981307,-154.6214,0.973672,85.3048,18.3282,-62.6976,19.6714,177.362,18.3229,57.3469
182153,3LG,20,0.998481,-33.165,1.003834,-152.8698,0.996068,87.0328,17.9035,-60.9675,19.2185,179.0878,17.8981,59.074
182153,3LG,30,1.007924,-32.5964,1.013184,-152.2949,1.005363,87.599,17.7334,-60.4022,19.0371,179.6514,17.7281,59.6381
182153,3LG,40,1.012675,-32.2984,1.017877,-151.9937,1.010032,87.8953,17.6493,-60.1064,18.9474,179.9466,17.6441,59.9335
182158,SLG,0,0.573668,-33.9199,1.155105,-158.2638,1.107749,97.1632,19.0349,-60.0387,20.3172,-179.483,19.2794,60.7062
182158,SLG,10,0.946719,-36.7098,1.084215,-151.719,1.014625,91.1429,17.6944,-60.2938,18.915,179.6598,17.6214,59.8626
182158,SLG,20,0.984719,-34.305,1.057536,-151.1221,1.012854,90.1368,17.5987,-59.7084,18.8154,-179.7007,17.5555,60.3988
182158,SLG,30,0.998944,-33.4166,1.049669,-151.0572,1.015674,89.7147,17.5321,-59.55,18.7671,-179.5247,17.5011,60.536
182158,SLG,40,1.006042,-32.9366,1.045477,-151.0367,1.017412,89.4987,17.499,-59.4624,18.745,-179.4292,17.4743,60.6123
182158,LL,0,0.609005,-33.5064,0.580599,-156.8679,1.158501,89.0874,15.3429,-76.3213,15.5193,-166.7268,21.3611,60.1775
182158,LL,10,0.937273,-34.0691,0.990661,-156.8736,1.061922,90.3974,18.0265,-61.2521,19.3306,178.248,17.9203,58.7024
182158,LL,20,0.979505,-33.1596,1.018256,-154.3731,1.045692,89.7673,17.6583,-60.4641,18.95,179.3024,17.6082,59.5134
182158,LL,30,0.99107,-32.5151,1.020533,-153.1448,1.033861,89.6612,17.635,-59.9128,18.9278,179.9483,17.6006,60.0801
182158,LL,40,0.999622,-32.2622,1.023912,-152.6391,1.031255,89.4809,17.5754,-59.7392,18.8654,-179.8312,17.5487,60.2635
182158,3LG,0,0.604178,-36.0848,0.606712,-155.8871,0.60361,84.0742,11.581,-63.8201,12.5464,176.1951,11.5962,55.9681
182158,3LG,10,0.976032,-34.8269,0.98158,-154.5478,0.973945,85.3759,18.3227,-62.6252,19.6656,177.4344,18.3174,57.4192
182158,3LG,20,0.998531,-33.1442,1.003871,-152.8487,0.996109,87.0531,17.9027,-60.9468,19.2176,179.1085,17.8973,59.0947
182158,3LG,30,1.00794,-32.5866,1.013194,-152.285,1.005375,87.6085,17.7332,-60.3925,19.0369,179.6612,17.7279,59.6479
182158,3LG,40,1.012681,-32.2927,1.01788,-151.988,1.010037,87.9008,17.6493,-60.1007,18.9473,179.9523,17.644,59.9392
182162,SLG,0,0.606964,-33.9299,1.1468,-157.7617,1.100247,96.6123,18.9542,-60.0919,20.1775,-179.5356,19.1607,60.7651
182162,SLG,10,0.946988,-36.5617,1.083354,-151.7407,1.015391,91.1098,17.6909,-60.2688,18.9114,179.6882,17.6203,59.8886
182162,SLG,20,0.989234,-34.5037,1.063715,-151.3832,1.018941,89.9477,17.5001,-59.9288,18.7254,-179.9202,17.4584,60.1774
182162,SLG,30,0.998899,-33.3962,1.049563,-151.0623,1.015806,89.7121,17.532,-59.5463,18.7672,-179.5207,17.5013,60.5399
182162,SLG,40,1.006009,-32.9248,1.045417,-151.0398,1.01749,89.4973,17.4989,-59.4602,18.7451,-179.4269,17.4744,60.6146
182162,LL,0,0.641879,-33.5048,0.614431,-156.654,1.149119,89.092,15.7233,-74.0171,16.2871,-168.6265,21.2768,59.8083
182162,LL,10,0.938933,-33.9684,0.989675,-156.7561,1.061707,90.3355,18.0221,-61.2042,19.3275,178.3027,17.9165,58.7518
182162,LL,20,0.979958,-33.1223,1.017811,-154.3432,1.045719,89.7463,17.6579,-60.4494,18.95,179.3188,17.6078,59.5285
182162,LL,30,0.991262,-32.4963,1.020302,-153.1322,1.033895,89.6513,17.635,-59.9059,18.928,179.9559,17.6006,60.0872
182162,LL,40,0.999727,-32.2509,1.023772,-152.6321,1.03128,89.4752,17.5754,-59.7351,18.8655,-179.8268,17.5487,60.2676
182162,3LG,0,0.637306,-35.9286,0.640176,-155.7103,0.636582,84.2431,12.6313,-63.6464,13.6861,176.369,12.6483,56.1332
182162,3LG,10,0.976298,-34.7603,0.981814,-154.4799,0.974179,85.4415,18.318,-62.5586,19.6606,177.501,18.3127,57.4858
182162,3LG,20,0.998571,-33.1249,1.0039,-152.8293,0.996141,87.0719,17.9021,-60.9276,19.217,179.1277,17.8967,59.1139
182162,3LG,30,1.007953,-32.5776,1.013201,-152.276,1.005384,87.6172,17.7331,-60.3836,19.0367,179.6701,17.7277,59.6568
182162,3LG,40,1.012687,-32.2875,1.017882,-151.9827,1.01004,87.9059,17.6492,-60.0955,18.9473,179.9575,17.6439,59.9443
